<?xml version='1.0' encoding='utf-8'?>
<nodes>
    <node id="node_0" x="592.0" y="212.0" type="priority" />
    <node id="node_1" x="592.0" y="66.0" type="priority" />
    <node id="node_2" x="592.0" y="358.0" type="priority" />
    <node id="node_3" x="285.0" y="212.0" type="priority" />
</nodes>